<?xml version="1.0" encoding="UTF-8"?>

<!-- generated on 2. 12. 2017 18:40:50 by Netedit Version 0.30.0
<?xml version="1.0" encoding="UTF-8"?>

<configuration xmlns:xsi="http://www.w3.org/2001/XMLSchema-instance" xsi:noNamespaceSchemaLocation="netconvertConfiguration.xsd">

    <input>
        <sumo-net-file value="C:\Users\user\highway.net.xml"/>
    </input>

    <output>
        <output-file value="C:\Users\user\highway.net.xml"/>
    </output>

    <processing>
        <no-internal-links value="true"/>
        <no-turnarounds value="true"/>
        <offset.disable-normalization value="true"/>
        <lefthand value="false"/>
        <junctions.corner-detail value="0"/>
        <rectangular-lane-cut value="false"/>
    </processing>

</configuration>
-->

<net version="0.27" xmlns:xsi="http://www.w3.org/2001/XMLSchema-instance" xsi:noNamespaceSchemaLocation="net_file.xsd">

    <location netOffset="0.00,0.00" convBoundary="-2500.00,100.00,2500.00,100.00" origBoundary="-10000000000.00,-10000000000.00,10000000000.00,10000000000.00" projParameter="!"/>

    
    
    <edge id="highway" from="start_node" to="end_node" priority="1">
        <lane id="highway_0" index="0" speed="36.11" length="5000.00" shape="-2500.00,95.05 2500.00,95.05"/>
        <lane id="highway_1" index="1" speed="36.11" length="5000.00" shape="-2500.00,98.35 2500.00,98.35"/>
    </edge>

    <junction id="end_node" type="dead_end" x="2500.00" y="100.00" incLanes="highway_0 highway_1" intLanes="" shape="2500.00,93.45 2500.00,99.95"/>
    <junction id="start_node" type="dead_end" x="-2500.00" y="100.00" incLanes="" intLanes="" shape="-2500.00,99.95 -2500.00,93.45"/>

</net>
